2724957
  -OEChem-06092513173D

 14 14  0     0  0  0  0  0  0999 V2000
   -2.7865   -1.4211   -0.0004 O   0  0  0  0  0  0  0  0  0  0  0  0
    2.7866   -1.4210    0.0008 O   0  0  0  0  0  0  0  0  0  0  0  0
    0.0002   -0.5004   -0.0012 N   0  0  0  0  0  0  0  0  0  0  0  0
   -1.1197    0.2898    0.0001 C   0  0  0  0  0  0  0  0  0  0  0  0
    1.1198    0.2898   -0.0009 C   0  0  0  0  0  0  0  0  0  0  0  0
   -0.7085    1.6043    0.0003 C   0  0  0  0  0  0  0  0  0  0  0  0
    0.7083    1.6044   -0.0001 C   0  0  0  0  0  0  0  0  0  0  0  0
   -2.4534   -0.2230    0.0011 C   0  0  0  0  0  0  0  0  0  0  0  0
    2.4532   -0.2229    0.0003 C   0  0  0  0  0  0  0  0  0  0  0  0
    0.0001   -1.5115   -0.0015 H   0  0  0  0  0  0  0  0  0  0  0  0
   -1.3541    2.4719    0.0012 H   0  0  0  0  0  0  0  0  0  0  0  0
    1.3539    2.4721    0.0006 H   0  0  0  0  0  0  0  0  0  0  0  0
   -3.2494    0.5424    0.0027 H   0  0  0  0  0  0  0  0  0  0  0  0
    3.2492    0.5424    0.0007 H   0  0  0  0  0  0  0  0  0  0  0  0
  1  8  2  0  0  0  0
  2  9  2  0  0  0  0
  3  4  1  0  0  0  0
  3  5  1  0  0  0  0
  3 10  1  0  0  0  0
  4  6  2  0  0  0  0
  4  8  1  0  0  0  0
  5  7  2  0  0  0  0
  5  9  1  0  0  0  0
  6  7  1  0  0  0  0
  6 11  1  0  0  0  0
  7 12  1  0  0  0  0
  8 13  1  0  0  0  0
  9 14  1  0  0  0  0
M  END
> <PUBCHEM_COMPOUND_CID>
2724957

> <PUBCHEM_CONFORMER_RMSD>
0.4

> <PUBCHEM_CONFORMER_DIVERSEORDER>
1
3
4
5
6
2

> <PUBCHEM_MMFF94_PARTIAL_CHARGES>
14
1 -0.57
10 0.27
11 0.15
12 0.15
13 0.06
14 0.06
2 -0.57
3 0.03
4 -0.24
5 -0.24
6 -0.15
7 -0.15
8 0.59
9 0.59

> <PUBCHEM_EFFECTIVE_ROTOR_COUNT>
2

> <PUBCHEM_PHARMACOPHORE_FEATURES>
5
1 1 acceptor
1 2 acceptor
1 3 cation
1 3 donor
5 3 4 5 6 7 rings

> <PUBCHEM_HEAVY_ATOM_COUNT>
9

> <PUBCHEM_ATOM_DEF_STEREO_COUNT>
0

> <PUBCHEM_ATOM_UDEF_STEREO_COUNT>
0

> <PUBCHEM_BOND_DEF_STEREO_COUNT>
0

> <PUBCHEM_BOND_UDEF_STEREO_COUNT>
0

> <PUBCHEM_ISOTOPIC_ATOM_COUNT>
0

> <PUBCHEM_COMPONENT_COUNT>
1

> <PUBCHEM_CACTVS_TAUTO_COUNT>
4

> <PUBCHEM_CONFORMER_ID>
0029945D00000001

> <PUBCHEM_MMFF94_ENERGY>
4.0942

> <PUBCHEM_FEATURE_SELFOVERLAP>
25.371

> <PUBCHEM_SHAPE_FINGERPRINT>
10857977 72 18341599413402218408
14128692 85 18408328799703582852
20871998 22 18343311348595907022
21040471 1 17113819051019334689
23552423 10 18187651258521562670
29004967 10 18411417357820045889

> <PUBCHEM_SHAPE_MULTIPOLES>
168.5
3.84
1.61
0.59
0
0.27
0
-2.3
0
0
0
0
0.04
0

> <PUBCHEM_SHAPE_SELFOVERLAP>
351.36

> <PUBCHEM_SHAPE_VOLUME>
96.3

> <PUBCHEM_COORDINATE_TYPE>
2
5
10

$$$$
