79485
  -OEChem-06092513203D

 15 15  0     0  0  0  0  0  0999 V2000
    2.3887   -1.8700   -0.0001 O   0  0  0  0  0  0  0  0  0  0  0  0
   -2.3889   -1.8699    0.0002 O   0  0  0  0  0  0  0  0  0  0  0  0
    0.0002   -0.5676   -0.0004 N   0  0  0  0  0  0  0  0  0  0  0  0
    1.1489    0.1453    0.0004 C   0  0  0  0  0  0  0  0  0  0  0  0
   -1.1487    0.1451   -0.0009 C   0  0  0  0  0  0  0  0  0  0  0  0
    1.2026    1.5298    0.0007 C   0  0  0  0  0  0  0  0  0  0  0  0
   -1.2026    1.5296   -0.0007 C   0  0  0  0  0  0  0  0  0  0  0  0
   -0.0001    2.2277    0.0002 C   0  0  0  0  0  0  0  0  0  0  0  0
    2.3742   -0.6350   -0.0002 C   0  0  0  0  0  0  0  0  0  0  0  0
   -2.3742   -0.6349    0.0009 C   0  0  0  0  0  0  0  0  0  0  0  0
    2.1449    2.0673    0.0012 H   0  0  0  0  0  0  0  0  0  0  0  0
   -2.1449    2.0671   -0.0006 H   0  0  0  0  0  0  0  0  0  0  0  0
   -0.0001    3.3136    0.0005 H   0  0  0  0  0  0  0  0  0  0  0  0
    3.3213   -0.0691    0.0003 H   0  0  0  0  0  0  0  0  0  0  0  0
   -3.3212   -0.0688    0.0018 H   0  0  0  0  0  0  0  0  0  0  0  0
  1  9  2  0  0  0  0
  2 10  2  0  0  0  0
  3  4  2  0  0  0  0
  3  5  1  0  0  0  0
  4  6  1  0  0  0  0
  4  9  1  0  0  0  0
  5  7  2  0  0  0  0
  5 10  1  0  0  0  0
  6  8  2  0  0  0  0
  6 11  1  0  0  0  0
  7  8  1  0  0  0  0
  7 12  1  0  0  0  0
  8 13  1  0  0  0  0
  9 14  1  0  0  0  0
 10 15  1  0  0  0  0
M  END
> <PUBCHEM_COMPOUND_CID>
79485

> <PUBCHEM_CONFORMER_RMSD>
0.4

> <PUBCHEM_CONFORMER_DIVERSEORDER>
1
3
4
5
6
2

> <PUBCHEM_MMFF94_PARTIAL_CHARGES>
15
1 -0.57
10 0.42
11 0.15
12 0.15
13 0.15
14 0.06
15 0.06
2 -0.57
3 -0.62
4 0.4
5 0.4
6 -0.15
7 -0.15
8 -0.15
9 0.42

> <PUBCHEM_EFFECTIVE_ROTOR_COUNT>
2

> <PUBCHEM_PHARMACOPHORE_FEATURES>
4
1 1 acceptor
1 2 acceptor
1 3 acceptor
6 3 4 5 6 7 8 rings

> <PUBCHEM_HEAVY_ATOM_COUNT>
10

> <PUBCHEM_ATOM_DEF_STEREO_COUNT>
0

> <PUBCHEM_ATOM_UDEF_STEREO_COUNT>
0

> <PUBCHEM_BOND_DEF_STEREO_COUNT>
0

> <PUBCHEM_BOND_UDEF_STEREO_COUNT>
0

> <PUBCHEM_ISOTOPIC_ATOM_COUNT>
0

> <PUBCHEM_COMPONENT_COUNT>
1

> <PUBCHEM_CACTVS_TAUTO_COUNT>
1

> <PUBCHEM_CONFORMER_ID>
0001367D00000001

> <PUBCHEM_MMFF94_ENERGY>
20.2435

> <PUBCHEM_FEATURE_SELFOVERLAP>
20.309

> <PUBCHEM_SHAPE_FINGERPRINT>
12716758 59 17835516025333915514
14128692 85 18410020939656462612
16945 1 18410856559640159844
193761 8 18410575084663702532
20645477 70 18049432945028339335
20871998 184 18129377094830994254
20871998 22 18341903995150325334
21040471 1 17617940231944463616
23552423 10 18261116287372301436
241688 4 18408885105226760809
2748010 2 18411131437573373820
29004967 10 18192992844838887417

> <PUBCHEM_SHAPE_MULTIPOLES>
189.08
3.31
2.28
0.59
0
0.36
0
-2.23
0
0
0
0
0.04
0

> <PUBCHEM_SHAPE_SELFOVERLAP>
395.511

> <PUBCHEM_SHAPE_VOLUME>
105.6

> <PUBCHEM_COORDINATE_TYPE>
2
5
10

$$$$
